// Re = 10000.0, Pr = 0.01, k = 5
FoamFile
{
    version     2.0;
    format      ascii;
    class       dictionary;
    location    "system";
    object      changeDictionaryDict;
}

dictionaryReplacement
{
    thermophysicalProperties
    {
        mixture
        {
        	specie
        	{
        		molWeight       24.0998901449;
        	}
        	thermodynamics
        	{
        		Cp              20000.0;
        	}
        	transport
        	{
        		mu              1e-05;
        		Pr              0.01; 
        	}
        }
    }
}
