/*--------------------------------*- C++ -*----------------------------------*\
| =========                 |                                                 |
| \\      /  F ield         | OpenFOAM: The Open Source CFD Toolbox           |
|  \\    /   O peration     | Version:  3.0.1                                 |
|   \\  /    A nd           | Web:      www.OpenFOAM.org                      |
|    \\/     M anipulation  |                                                 |
\*---------------------------------------------------------------------------*/
FoamFile
{
    version     2.0;
    format      ascii;
    class       dictionary;
    location    "system";
    object      fvSolution;
}
// * * * * * * * * * * * * * * * * * * * * * * * * * * * * * * * * * * * * * //

solvers
{
    "rho.*"
    {
        solver          PCG;
        preconditioner  DIC;
        tolerance       0;
        relTol          0;
    }

    p_rgh
    {
        solver          PCG;
        preconditioner  DIC;
        tolerance       1e-8;
        relTol          0.01;
    }

    p_rghFinal
    {
        $p_rgh;
        relTol          0;
    }

    "(U|h|e|k|epsilon|R)"
    {
        solver          PBiCG;
        preconditioner  DILU;
        tolerance       1e-6;
        relTol          0.1;
    }

    "(U|h|e|k|epsilon|R)Final"
    {
        $U;
        relTol          0;
    }
}

PIMPLE
{
    momentumPredictor yes;
    nOuterCorrectors 1;
    nCorrectors     2;
    nNonOrthogonalCorrectors 0;
    residualControl
    {
    	p_rgh
    	{
    		tolerance		1e-5;
    		relTol			0;
    	}
    	U
    	{
    		tolerance		1e-5;
    		relTol			0;
    	}
    	h
    	{
    		tolerance		1e-5;
    		relTol			0;
    	}
    }
}


SIMPLE
{
    nNonOrthogonalCorrectors 0;

    residualControl
    {
        p               1e-6;
        U               1e-7;
        "(k|epsilon|omega)" 1e-7;
    }
}

relaxationFactors
{
    fields
    {
        p_rgh               0.3;
        p_rghFinal          1.0;
    }
    equations
    {
        "(U|e|h)"               0.7;
        "(U|e|h)Final"          1.0;
    }
}

// ************************************************************************* //
