/*--------------------------------*- C++ -*----------------------------------*\
| =========                 |                                                 |
| \\      /  F ield         | OpenFOAM: The Open Source CFD Toolbox           |
|  \\    /   O peration     | Version:  3.0.1                                 |
|   \\  /    A nd           | Web:      www.OpenFOAM.org                      |
|    \\/     M anipulation  |                                                 |
\*---------------------------------------------------------------------------*/
FoamFile
{
    version     2.0;
    format      ascii;
    class       dictionary;
    object      sampleDict;
}
// * * * * * * * * * * * * * * * * * * * * * * * * * * * * * * * * * * * * //

// Set output format : choice of
//      xmgr
//      jplot
//      gnuplot
//      raw
//      vtk
//      ensight
//      csv
setFormat raw;

interpolationScheme cellPoint;

fields
(
    T
);

sets
(
    line
    {
        type        uniform;
        axis        x;

        start       (0 0 0.2);
        end         (1 0 0.2);
        nPoints     100;
    }

);


// *********************************************************************** //
