/*--------------------------------*- C++ -*----------------------------------*\
| =========                 |                                                 |
| \\      /  F ield         | OpenFOAM: The Open Source CFD Toolbox           |
|  \\    /   O peration     | Version:  2.4.0                                 |
|   \\  /    A nd           | Web:      www.OpenFOAM.org                      |
|    \\/     M anipulation  |                                                 |
\*---------------------------------------------------------------------------*/
FoamFile
{
    version     2.0;
    format      ascii;
    class       dictionary;
    object      blockMeshDict;
}
// * * * * * * * * * * * * * * * * * * * * * * * * * * * * * * * * * * * * * //

convertToMeters 0.1;

vertices
(
    (6 2 0)
    (9 2 0)
    (9 5 0)
    (6 5 0)
    
    (6 2 5)
    (9 2 5)
    (9 5 5)
    (6 5 5)
);

blocks
(
    hex (0 1 2 3 4 5 6 7) (5 5 1) simpleGrading (1 1 1)
);

edges
(
);

boundary
(
    interface
    {
        type wall;
        faces
        (
            (4 7 3 0)
        	(3 7 6 2)
            (1 2 6 5)
        	(5 4 0 1)
        );
    }
);

mergePatchPairs
(
);

// ************************************************************************* //
